*NAND gate
.MODEL PCH PMOS LEVEL=54
.MODEL NCH NMOS LEVEL=54
MPA op A DD DD PCH L=L W=W
MPB op B DD DD PCH L=L W=W
MNA op A S S NCH L=L W=W
MNB S B 0 0 NCH L=L W=W

vdd DD 0 3
va A 0 3
vb b 0 2

.DC vb 0 3 0.1 SWEEP DATA=d1
.DATA d1
L	W
90n 	225n
100n	250n
120n	280n
.ENDDATA
.plot DC V(va) V(vb) V(op)
.option post
.end
