*NMOS CHARACTERISTICS
.MODEL NCH NMOS LEVEL=54
M1 d g 0 0 NCH L=90n W=170n
R d0 d 100
vds d0 0 dc 4
vgs g 0 dc 2
*.PARAM L=60n
.DC vds 0 5 0.01 SWEEP vgs 0 5 1
.ENDDATA
.plot DC lX4(M1)
.option post
.end
