*NMOS CHARACTERISTICS
.MODEL NCH NMOS LEVEL=54
M1 d g 0 0 NCH L=90n W=225n
R d0 d 1K
vds d0 0 dc 3
vgs g 0 dc 0
*.PARAM L=60n
.DC vgs 0 3 0.01 
.ENDDATA
.plot DC lX4(M1)
.option post
.end
