*NMOS CHARACTERISTICS
.MODEL NCH NMOS LEVEL=54
M1 d g 0 s NCH L=90n W=170n
R d0 d 10K
vds d0 0 dc 3
vgs g 0 dc 0
vbs s 0 dc 0
*.PARAM L=60n
.DC vbs 0 -3 -0.01 
.ENDDATA
.plot DC lX4(M1)
.option post
.end
