*NOR gate
.MODEL PCH PMOS LEVEL=54
.MODEL NCH NMOS LEVEL=54
MPA D A DD DD PCH L=L W=W
MPB op B DD DD PCH L=L W=W
MNA op A 0 0 NCH L=L W=W
MNB op B 0 0 NCH L=L W=W

vdd DD 0 3
va A 0 0
vb b 0 2

.DC vb 0 3 0.01 SWEEP DATA=d1
.DATA d1
L	W
90n 	225n
100n	250n
120n	280n
.ENDDATA

.plot DC V(A) V(B) V(op)
.option post
.end
