*PMOS VDD sweep
.MODEL PCH PMOS LEVEL=54
M1 0 g s s PCH L=90n W=225n
R s0 s 1K
vsd s0 0 DC 3
vsg s g DC 3

.DC vsd 0 3 0.01 SWEEP vsg 0 5 1
.plot DC lx4(M1)
.option post
.end
