*PMOS VDD sweep
.MODEL PCH PMOS LEVEL=54
M1 0 g s s PCH L=90n W=235n
vsd s 0 DC 3
vsg s g DC 3

.DC vsg 0 3 0.01
.plot DC lx4(M1)
.option post
.end
